[root]
type=Root
children=system
eventq_index=0
full_system=true
sim_quantum=0
time_sync_enable=false
time_sync_period=100000000000
time_sync_spin_threshold=100000000

[system]
type=ArmSystem
children=bridge clk_domain cpu0 cpu1 cpu2 cpu3 cpu4 cpu5 cpu6 cpu7 cpu_clk_domain cpu_voltage_domain dvfs_handler iobridge iobus mem_ctrls membus pci_ide realview release terminal vncserver voltage_domain workload
auto_reset_addr=true
auto_unlink_shared_backstore=false
cache_line_size=64
eventq_index=0
exit_on_work_items=false
gic_cpu_addr=738205696
have_large_asid_64=false
highest_el_is_64=true
init_param=0
m5ops_base=268500992
mem_mode=atomic
mem_ranges=2147483648:2684354560
memories=system.mem_ctrls.dram system.realview.bootmem system.realview.flash0 system.realview.flash1 system.realview.non_trusted_sram system.realview.trusted_dram system.realview.trusted_sram system.realview.vram
mmap_using_noreserve=false
multi_proc=true
multi_thread=false
num_work_ids=16
phys_addr_range_64=40
readfile=fssimulation_scripts/test7.rcS
redirect_paths=
release=system.release
reset_addr=0
semihosting=Null
shadow_rom_ranges=
shared_backstore=
sve_vl=1
symbolfile=
thermal_components=
thermal_model=Null
work_begin_ckpt_count=0
work_begin_cpu_id_exit=-1
work_begin_exit_count=0
work_cpus_ckpt_count=0
work_end_ckpt_count=0
work_end_exit_count=0
work_item_id=-1
workload=system.workload
system_port=system.membus.cpu_side_ports[0]

[system.bridge]
type=Bridge
children=power_state
clk_domain=system.clk_domain
delay=50000
eventq_index=0
power_model=
power_state=system.bridge.power_state
ranges=201326592:536870912 788529152:2147483648
req_size=16
resp_size=16
cpu_side_port=system.membus.mem_side_ports[0]
mem_side_port=system.iobus.cpu_side_ports[0]

[system.bridge.power_state]
type=PowerState
clk_gate_bins=20
clk_gate_max=1000000000000
clk_gate_min=1000
default_state=UNDEFINED
eventq_index=0
leaders=
possible_states=

[system.clk_domain]
type=SrcClockDomain
clock=1000
domain_id=-1
eventq_index=0
init_perf_level=0
voltage_domain=system.voltage_domain

[system.cpu0]
type=BaseAtomicSimpleCPU
children=decoder interrupts isa mmu power_state tracer
branchPred=Null
checker=Null
clk_domain=system.cpu_clk_domain
cpu_id=0
decoder=system.cpu0.decoder
do_checkpoint_insts=true
do_statistics_insts=true
eventq_index=0
function_trace=false
function_trace_start=0
interrupts=system.cpu0.interrupts
isa=system.cpu0.isa
max_insts_all_threads=0
max_insts_any_thread=0
mmu=system.cpu0.mmu
numThreads=1
power_gating_on_idle=false
power_model=
power_state=system.cpu0.power_state
progress_interval=0
pwr_gating_latency=300
simpoint_start_insts=
simulate_data_stalls=false
simulate_inst_stalls=false
socket_id=0
switched_out=false
syscallRetryLatency=10000
system=system
tracer=system.cpu0.tracer
width=1
workload=
dcache_port=system.membus.cpu_side_ports[3]
icache_port=system.membus.cpu_side_ports[2]

[system.cpu0.decoder]
type=ArmDecoder
dvm_enabled=false
eventq_index=0
isa=system.cpu0.isa

[system.cpu0.interrupts]
type=ArmInterrupts
eventq_index=0

[system.cpu0.isa]
type=ArmISA
children=release_se
decoderFlavor=Generic
eventq_index=0
fpsid=1090793632
id_aa64afr0_el1=0
id_aa64afr1_el1=0
id_aa64dfr0_el1=15790086
id_aa64dfr1_el1=0
id_aa64isar0_el1=268435456
id_aa64isar1_el1=16846864
id_aa64mmfr0_el1=15728642
id_aa64mmfr1_el1=1052704
id_aa64mmfr2_el1=65552
id_isar0=34607377
id_isar1=34677009
id_isar2=555950401
id_isar3=17899825
id_isar4=268501314
id_isar5=285212672
id_isar6=1
id_mmfr0=270536963
id_mmfr1=0
id_mmfr2=19070976
id_mmfr3=34611729
id_mmfr4=0
impdef_nop=false
midr=0
pmu=Null
release_se=system.cpu0.isa.release_se
sve_vl_se=1
system=system

[system.cpu0.isa.release_se]
type=ArmRelease
eventq_index=0
extensions=CRYPTO FEAT_LSE FEAT_RDM FEAT_SVE FEAT_FCMA FEAT_JSCVT FEAT_PAuth TME

[system.cpu0.mmu]
type=ArmMMU
children=dtb dtb_walker itb itb_walker l2_shared stage2_dtb stage2_dtb_walker stage2_itb stage2_itb_walker
dtb=system.cpu0.mmu.dtb
dtb_walker=system.cpu0.mmu.dtb_walker
eventq_index=0
itb=system.cpu0.mmu.itb
itb_walker=system.cpu0.mmu.itb_walker
release_se=system.cpu0.isa.release_se
stage2_dtb=system.cpu0.mmu.stage2_dtb
stage2_dtb_walker=system.cpu0.mmu.stage2_dtb_walker
stage2_itb=system.cpu0.mmu.stage2_itb
stage2_itb_walker=system.cpu0.mmu.stage2_itb_walker
sys=system

[system.cpu0.mmu.dtb]
type=ArmTLB
entry_type=data
eventq_index=0
is_stage2=false
next_level=system.cpu0.mmu.l2_shared
partial_levels=
size=64
sys=system

[system.cpu0.mmu.dtb_walker]
type=ArmTableWalker
children=power_state
clk_domain=system.cpu_clk_domain
eventq_index=0
is_stage2=false
num_squash_per_cycle=2
power_model=
power_state=system.cpu0.mmu.dtb_walker.power_state
sys=system
port=system.membus.cpu_side_ports[5]

[system.cpu0.mmu.dtb_walker.power_state]
type=PowerState
clk_gate_bins=20
clk_gate_max=1000000000000
clk_gate_min=1000
default_state=UNDEFINED
eventq_index=0
leaders=
possible_states=

[system.cpu0.mmu.itb]
type=ArmTLB
entry_type=instruction
eventq_index=0
is_stage2=false
next_level=system.cpu0.mmu.l2_shared
partial_levels=
size=64
sys=system

[system.cpu0.mmu.itb_walker]
type=ArmTableWalker
children=power_state
clk_domain=system.cpu_clk_domain
eventq_index=0
is_stage2=false
num_squash_per_cycle=2
power_model=
power_state=system.cpu0.mmu.itb_walker.power_state
sys=system
port=system.membus.cpu_side_ports[4]

[system.cpu0.mmu.itb_walker.power_state]
type=PowerState
clk_gate_bins=20
clk_gate_max=1000000000000
clk_gate_min=1000
default_state=UNDEFINED
eventq_index=0
leaders=
possible_states=

[system.cpu0.mmu.l2_shared]
type=ArmTLB
entry_type=unified
eventq_index=0
is_stage2=false
next_level=Null
partial_levels=L2
size=1280
sys=system

[system.cpu0.mmu.stage2_dtb]
type=ArmTLB
entry_type=data
eventq_index=0
is_stage2=true
next_level=Null
partial_levels=
size=32
sys=system

[system.cpu0.mmu.stage2_dtb_walker]
type=ArmTableWalker
children=power_state
clk_domain=system.cpu_clk_domain
eventq_index=0
is_stage2=true
num_squash_per_cycle=2
power_model=
power_state=system.cpu0.mmu.stage2_dtb_walker.power_state
sys=system
port=system.membus.cpu_side_ports[7]

[system.cpu0.mmu.stage2_dtb_walker.power_state]
type=PowerState
clk_gate_bins=20
clk_gate_max=1000000000000
clk_gate_min=1000
default_state=UNDEFINED
eventq_index=0
leaders=
possible_states=

[system.cpu0.mmu.stage2_itb]
type=ArmTLB
entry_type=instruction
eventq_index=0
is_stage2=true
next_level=Null
partial_levels=
size=32
sys=system

[system.cpu0.mmu.stage2_itb_walker]
type=ArmTableWalker
children=power_state
clk_domain=system.cpu_clk_domain
eventq_index=0
is_stage2=true
num_squash_per_cycle=2
power_model=
power_state=system.cpu0.mmu.stage2_itb_walker.power_state
sys=system
port=system.membus.cpu_side_ports[6]

[system.cpu0.mmu.stage2_itb_walker.power_state]
type=PowerState
clk_gate_bins=20
clk_gate_max=1000000000000
clk_gate_min=1000
default_state=UNDEFINED
eventq_index=0
leaders=
possible_states=

[system.cpu0.power_state]
type=PowerState
clk_gate_bins=20
clk_gate_max=1000000000000
clk_gate_min=1000
default_state=UNDEFINED
eventq_index=0
leaders=
possible_states=ON CLK_GATED OFF

[system.cpu0.tracer]
type=ExeTracer
eventq_index=0

[system.cpu1]
type=BaseAtomicSimpleCPU
children=decoder interrupts isa mmu power_state tracer
branchPred=Null
checker=Null
clk_domain=system.cpu_clk_domain
cpu_id=1
decoder=system.cpu1.decoder
do_checkpoint_insts=true
do_statistics_insts=true
eventq_index=0
function_trace=false
function_trace_start=0
interrupts=system.cpu1.interrupts
isa=system.cpu1.isa
max_insts_all_threads=0
max_insts_any_thread=0
mmu=system.cpu1.mmu
numThreads=1
power_gating_on_idle=false
power_model=
power_state=system.cpu1.power_state
progress_interval=0
pwr_gating_latency=300
simpoint_start_insts=
simulate_data_stalls=false
simulate_inst_stalls=false
socket_id=0
switched_out=false
syscallRetryLatency=10000
system=system
tracer=system.cpu1.tracer
width=1
workload=
dcache_port=system.membus.cpu_side_ports[9]
icache_port=system.membus.cpu_side_ports[8]

[system.cpu1.decoder]
type=ArmDecoder
dvm_enabled=false
eventq_index=0
isa=system.cpu1.isa

[system.cpu1.interrupts]
type=ArmInterrupts
eventq_index=0

[system.cpu1.isa]
type=ArmISA
children=release_se
decoderFlavor=Generic
eventq_index=0
fpsid=1090793632
id_aa64afr0_el1=0
id_aa64afr1_el1=0
id_aa64dfr0_el1=15790086
id_aa64dfr1_el1=0
id_aa64isar0_el1=268435456
id_aa64isar1_el1=16846864
id_aa64mmfr0_el1=15728642
id_aa64mmfr1_el1=1052704
id_aa64mmfr2_el1=65552
id_isar0=34607377
id_isar1=34677009
id_isar2=555950401
id_isar3=17899825
id_isar4=268501314
id_isar5=285212672
id_isar6=1
id_mmfr0=270536963
id_mmfr1=0
id_mmfr2=19070976
id_mmfr3=34611729
id_mmfr4=0
impdef_nop=false
midr=0
pmu=Null
release_se=system.cpu1.isa.release_se
sve_vl_se=1
system=system

[system.cpu1.isa.release_se]
type=ArmRelease
eventq_index=0
extensions=CRYPTO FEAT_LSE FEAT_RDM FEAT_SVE FEAT_FCMA FEAT_JSCVT FEAT_PAuth TME

[system.cpu1.mmu]
type=ArmMMU
children=dtb dtb_walker itb itb_walker l2_shared stage2_dtb stage2_dtb_walker stage2_itb stage2_itb_walker
dtb=system.cpu1.mmu.dtb
dtb_walker=system.cpu1.mmu.dtb_walker
eventq_index=0
itb=system.cpu1.mmu.itb
itb_walker=system.cpu1.mmu.itb_walker
release_se=system.cpu1.isa.release_se
stage2_dtb=system.cpu1.mmu.stage2_dtb
stage2_dtb_walker=system.cpu1.mmu.stage2_dtb_walker
stage2_itb=system.cpu1.mmu.stage2_itb
stage2_itb_walker=system.cpu1.mmu.stage2_itb_walker
sys=system

[system.cpu1.mmu.dtb]
type=ArmTLB
entry_type=data
eventq_index=0
is_stage2=false
next_level=system.cpu1.mmu.l2_shared
partial_levels=
size=64
sys=system

[system.cpu1.mmu.dtb_walker]
type=ArmTableWalker
children=power_state
clk_domain=system.cpu_clk_domain
eventq_index=0
is_stage2=false
num_squash_per_cycle=2
power_model=
power_state=system.cpu1.mmu.dtb_walker.power_state
sys=system
port=system.membus.cpu_side_ports[11]

[system.cpu1.mmu.dtb_walker.power_state]
type=PowerState
clk_gate_bins=20
clk_gate_max=1000000000000
clk_gate_min=1000
default_state=UNDEFINED
eventq_index=0
leaders=
possible_states=

[system.cpu1.mmu.itb]
type=ArmTLB
entry_type=instruction
eventq_index=0
is_stage2=false
next_level=system.cpu1.mmu.l2_shared
partial_levels=
size=64
sys=system

[system.cpu1.mmu.itb_walker]
type=ArmTableWalker
children=power_state
clk_domain=system.cpu_clk_domain
eventq_index=0
is_stage2=false
num_squash_per_cycle=2
power_model=
power_state=system.cpu1.mmu.itb_walker.power_state
sys=system
port=system.membus.cpu_side_ports[10]

[system.cpu1.mmu.itb_walker.power_state]
type=PowerState
clk_gate_bins=20
clk_gate_max=1000000000000
clk_gate_min=1000
default_state=UNDEFINED
eventq_index=0
leaders=
possible_states=

[system.cpu1.mmu.l2_shared]
type=ArmTLB
entry_type=unified
eventq_index=0
is_stage2=false
next_level=Null
partial_levels=L2
size=1280
sys=system

[system.cpu1.mmu.stage2_dtb]
type=ArmTLB
entry_type=data
eventq_index=0
is_stage2=true
next_level=Null
partial_levels=
size=32
sys=system

[system.cpu1.mmu.stage2_dtb_walker]
type=ArmTableWalker
children=power_state
clk_domain=system.cpu_clk_domain
eventq_index=0
is_stage2=true
num_squash_per_cycle=2
power_model=
power_state=system.cpu1.mmu.stage2_dtb_walker.power_state
sys=system
port=system.membus.cpu_side_ports[13]

[system.cpu1.mmu.stage2_dtb_walker.power_state]
type=PowerState
clk_gate_bins=20
clk_gate_max=1000000000000
clk_gate_min=1000
default_state=UNDEFINED
eventq_index=0
leaders=
possible_states=

[system.cpu1.mmu.stage2_itb]
type=ArmTLB
entry_type=instruction
eventq_index=0
is_stage2=true
next_level=Null
partial_levels=
size=32
sys=system

[system.cpu1.mmu.stage2_itb_walker]
type=ArmTableWalker
children=power_state
clk_domain=system.cpu_clk_domain
eventq_index=0
is_stage2=true
num_squash_per_cycle=2
power_model=
power_state=system.cpu1.mmu.stage2_itb_walker.power_state
sys=system
port=system.membus.cpu_side_ports[12]

[system.cpu1.mmu.stage2_itb_walker.power_state]
type=PowerState
clk_gate_bins=20
clk_gate_max=1000000000000
clk_gate_min=1000
default_state=UNDEFINED
eventq_index=0
leaders=
possible_states=

[system.cpu1.power_state]
type=PowerState
clk_gate_bins=20
clk_gate_max=1000000000000
clk_gate_min=1000
default_state=UNDEFINED
eventq_index=0
leaders=
possible_states=ON CLK_GATED OFF

[system.cpu1.tracer]
type=ExeTracer
eventq_index=0

[system.cpu2]
type=BaseAtomicSimpleCPU
children=decoder interrupts isa mmu power_state tracer
branchPred=Null
checker=Null
clk_domain=system.cpu_clk_domain
cpu_id=2
decoder=system.cpu2.decoder
do_checkpoint_insts=true
do_statistics_insts=true
eventq_index=0
function_trace=false
function_trace_start=0
interrupts=system.cpu2.interrupts
isa=system.cpu2.isa
max_insts_all_threads=0
max_insts_any_thread=0
mmu=system.cpu2.mmu
numThreads=1
power_gating_on_idle=false
power_model=
power_state=system.cpu2.power_state
progress_interval=0
pwr_gating_latency=300
simpoint_start_insts=
simulate_data_stalls=false
simulate_inst_stalls=false
socket_id=0
switched_out=false
syscallRetryLatency=10000
system=system
tracer=system.cpu2.tracer
width=1
workload=
dcache_port=system.membus.cpu_side_ports[15]
icache_port=system.membus.cpu_side_ports[14]

[system.cpu2.decoder]
type=ArmDecoder
dvm_enabled=false
eventq_index=0
isa=system.cpu2.isa

[system.cpu2.interrupts]
type=ArmInterrupts
eventq_index=0

[system.cpu2.isa]
type=ArmISA
children=release_se
decoderFlavor=Generic
eventq_index=0
fpsid=1090793632
id_aa64afr0_el1=0
id_aa64afr1_el1=0
id_aa64dfr0_el1=15790086
id_aa64dfr1_el1=0
id_aa64isar0_el1=268435456
id_aa64isar1_el1=16846864
id_aa64mmfr0_el1=15728642
id_aa64mmfr1_el1=1052704
id_aa64mmfr2_el1=65552
id_isar0=34607377
id_isar1=34677009
id_isar2=555950401
id_isar3=17899825
id_isar4=268501314
id_isar5=285212672
id_isar6=1
id_mmfr0=270536963
id_mmfr1=0
id_mmfr2=19070976
id_mmfr3=34611729
id_mmfr4=0
impdef_nop=false
midr=0
pmu=Null
release_se=system.cpu2.isa.release_se
sve_vl_se=1
system=system

[system.cpu2.isa.release_se]
type=ArmRelease
eventq_index=0
extensions=CRYPTO FEAT_LSE FEAT_RDM FEAT_SVE FEAT_FCMA FEAT_JSCVT FEAT_PAuth TME

[system.cpu2.mmu]
type=ArmMMU
children=dtb dtb_walker itb itb_walker l2_shared stage2_dtb stage2_dtb_walker stage2_itb stage2_itb_walker
dtb=system.cpu2.mmu.dtb
dtb_walker=system.cpu2.mmu.dtb_walker
eventq_index=0
itb=system.cpu2.mmu.itb
itb_walker=system.cpu2.mmu.itb_walker
release_se=system.cpu2.isa.release_se
stage2_dtb=system.cpu2.mmu.stage2_dtb
stage2_dtb_walker=system.cpu2.mmu.stage2_dtb_walker
stage2_itb=system.cpu2.mmu.stage2_itb
stage2_itb_walker=system.cpu2.mmu.stage2_itb_walker
sys=system

[system.cpu2.mmu.dtb]
type=ArmTLB
entry_type=data
eventq_index=0
is_stage2=false
next_level=system.cpu2.mmu.l2_shared
partial_levels=
size=64
sys=system

[system.cpu2.mmu.dtb_walker]
type=ArmTableWalker
children=power_state
clk_domain=system.cpu_clk_domain
eventq_index=0
is_stage2=false
num_squash_per_cycle=2
power_model=
power_state=system.cpu2.mmu.dtb_walker.power_state
sys=system
port=system.membus.cpu_side_ports[17]

[system.cpu2.mmu.dtb_walker.power_state]
type=PowerState
clk_gate_bins=20
clk_gate_max=1000000000000
clk_gate_min=1000
default_state=UNDEFINED
eventq_index=0
leaders=
possible_states=

[system.cpu2.mmu.itb]
type=ArmTLB
entry_type=instruction
eventq_index=0
is_stage2=false
next_level=system.cpu2.mmu.l2_shared
partial_levels=
size=64
sys=system

[system.cpu2.mmu.itb_walker]
type=ArmTableWalker
children=power_state
clk_domain=system.cpu_clk_domain
eventq_index=0
is_stage2=false
num_squash_per_cycle=2
power_model=
power_state=system.cpu2.mmu.itb_walker.power_state
sys=system
port=system.membus.cpu_side_ports[16]

[system.cpu2.mmu.itb_walker.power_state]
type=PowerState
clk_gate_bins=20
clk_gate_max=1000000000000
clk_gate_min=1000
default_state=UNDEFINED
eventq_index=0
leaders=
possible_states=

[system.cpu2.mmu.l2_shared]
type=ArmTLB
entry_type=unified
eventq_index=0
is_stage2=false
next_level=Null
partial_levels=L2
size=1280
sys=system

[system.cpu2.mmu.stage2_dtb]
type=ArmTLB
entry_type=data
eventq_index=0
is_stage2=true
next_level=Null
partial_levels=
size=32
sys=system

[system.cpu2.mmu.stage2_dtb_walker]
type=ArmTableWalker
children=power_state
clk_domain=system.cpu_clk_domain
eventq_index=0
is_stage2=true
num_squash_per_cycle=2
power_model=
power_state=system.cpu2.mmu.stage2_dtb_walker.power_state
sys=system
port=system.membus.cpu_side_ports[19]

[system.cpu2.mmu.stage2_dtb_walker.power_state]
type=PowerState
clk_gate_bins=20
clk_gate_max=1000000000000
clk_gate_min=1000
default_state=UNDEFINED
eventq_index=0
leaders=
possible_states=

[system.cpu2.mmu.stage2_itb]
type=ArmTLB
entry_type=instruction
eventq_index=0
is_stage2=true
next_level=Null
partial_levels=
size=32
sys=system

[system.cpu2.mmu.stage2_itb_walker]
type=ArmTableWalker
children=power_state
clk_domain=system.cpu_clk_domain
eventq_index=0
is_stage2=true
num_squash_per_cycle=2
power_model=
power_state=system.cpu2.mmu.stage2_itb_walker.power_state
sys=system
port=system.membus.cpu_side_ports[18]

[system.cpu2.mmu.stage2_itb_walker.power_state]
type=PowerState
clk_gate_bins=20
clk_gate_max=1000000000000
clk_gate_min=1000
default_state=UNDEFINED
eventq_index=0
leaders=
possible_states=

[system.cpu2.power_state]
type=PowerState
clk_gate_bins=20
clk_gate_max=1000000000000
clk_gate_min=1000
default_state=UNDEFINED
eventq_index=0
leaders=
possible_states=ON CLK_GATED OFF

[system.cpu2.tracer]
type=ExeTracer
eventq_index=0

[system.cpu3]
type=BaseAtomicSimpleCPU
children=decoder interrupts isa mmu power_state tracer
branchPred=Null
checker=Null
clk_domain=system.cpu_clk_domain
cpu_id=3
decoder=system.cpu3.decoder
do_checkpoint_insts=true
do_statistics_insts=true
eventq_index=0
function_trace=false
function_trace_start=0
interrupts=system.cpu3.interrupts
isa=system.cpu3.isa
max_insts_all_threads=0
max_insts_any_thread=0
mmu=system.cpu3.mmu
numThreads=1
power_gating_on_idle=false
power_model=
power_state=system.cpu3.power_state
progress_interval=0
pwr_gating_latency=300
simpoint_start_insts=
simulate_data_stalls=false
simulate_inst_stalls=false
socket_id=0
switched_out=false
syscallRetryLatency=10000
system=system
tracer=system.cpu3.tracer
width=1
workload=
dcache_port=system.membus.cpu_side_ports[21]
icache_port=system.membus.cpu_side_ports[20]

[system.cpu3.decoder]
type=ArmDecoder
dvm_enabled=false
eventq_index=0
isa=system.cpu3.isa

[system.cpu3.interrupts]
type=ArmInterrupts
eventq_index=0

[system.cpu3.isa]
type=ArmISA
children=release_se
decoderFlavor=Generic
eventq_index=0
fpsid=1090793632
id_aa64afr0_el1=0
id_aa64afr1_el1=0
id_aa64dfr0_el1=15790086
id_aa64dfr1_el1=0
id_aa64isar0_el1=268435456
id_aa64isar1_el1=16846864
id_aa64mmfr0_el1=15728642
id_aa64mmfr1_el1=1052704
id_aa64mmfr2_el1=65552
id_isar0=34607377
id_isar1=34677009
id_isar2=555950401
id_isar3=17899825
id_isar4=268501314
id_isar5=285212672
id_isar6=1
id_mmfr0=270536963
id_mmfr1=0
id_mmfr2=19070976
id_mmfr3=34611729
id_mmfr4=0
impdef_nop=false
midr=0
pmu=Null
release_se=system.cpu3.isa.release_se
sve_vl_se=1
system=system

[system.cpu3.isa.release_se]
type=ArmRelease
eventq_index=0
extensions=CRYPTO FEAT_LSE FEAT_RDM FEAT_SVE FEAT_FCMA FEAT_JSCVT FEAT_PAuth TME

[system.cpu3.mmu]
type=ArmMMU
children=dtb dtb_walker itb itb_walker l2_shared stage2_dtb stage2_dtb_walker stage2_itb stage2_itb_walker
dtb=system.cpu3.mmu.dtb
dtb_walker=system.cpu3.mmu.dtb_walker
eventq_index=0
itb=system.cpu3.mmu.itb
itb_walker=system.cpu3.mmu.itb_walker
release_se=system.cpu3.isa.release_se
stage2_dtb=system.cpu3.mmu.stage2_dtb
stage2_dtb_walker=system.cpu3.mmu.stage2_dtb_walker
stage2_itb=system.cpu3.mmu.stage2_itb
stage2_itb_walker=system.cpu3.mmu.stage2_itb_walker
sys=system

[system.cpu3.mmu.dtb]
type=ArmTLB
entry_type=data
eventq_index=0
is_stage2=false
next_level=system.cpu3.mmu.l2_shared
partial_levels=
size=64
sys=system

[system.cpu3.mmu.dtb_walker]
type=ArmTableWalker
children=power_state
clk_domain=system.cpu_clk_domain
eventq_index=0
is_stage2=false
num_squash_per_cycle=2
power_model=
power_state=system.cpu3.mmu.dtb_walker.power_state
sys=system
port=system.membus.cpu_side_ports[23]

[system.cpu3.mmu.dtb_walker.power_state]
type=PowerState
clk_gate_bins=20
clk_gate_max=1000000000000
clk_gate_min=1000
default_state=UNDEFINED
eventq_index=0
leaders=
possible_states=

[system.cpu3.mmu.itb]
type=ArmTLB
entry_type=instruction
eventq_index=0
is_stage2=false
next_level=system.cpu3.mmu.l2_shared
partial_levels=
size=64
sys=system

[system.cpu3.mmu.itb_walker]
type=ArmTableWalker
children=power_state
clk_domain=system.cpu_clk_domain
eventq_index=0
is_stage2=false
num_squash_per_cycle=2
power_model=
power_state=system.cpu3.mmu.itb_walker.power_state
sys=system
port=system.membus.cpu_side_ports[22]

[system.cpu3.mmu.itb_walker.power_state]
type=PowerState
clk_gate_bins=20
clk_gate_max=1000000000000
clk_gate_min=1000
default_state=UNDEFINED
eventq_index=0
leaders=
possible_states=

[system.cpu3.mmu.l2_shared]
type=ArmTLB
entry_type=unified
eventq_index=0
is_stage2=false
next_level=Null
partial_levels=L2
size=1280
sys=system

[system.cpu3.mmu.stage2_dtb]
type=ArmTLB
entry_type=data
eventq_index=0
is_stage2=true
next_level=Null
partial_levels=
size=32
sys=system

[system.cpu3.mmu.stage2_dtb_walker]
type=ArmTableWalker
children=power_state
clk_domain=system.cpu_clk_domain
eventq_index=0
is_stage2=true
num_squash_per_cycle=2
power_model=
power_state=system.cpu3.mmu.stage2_dtb_walker.power_state
sys=system
port=system.membus.cpu_side_ports[25]

[system.cpu3.mmu.stage2_dtb_walker.power_state]
type=PowerState
clk_gate_bins=20
clk_gate_max=1000000000000
clk_gate_min=1000
default_state=UNDEFINED
eventq_index=0
leaders=
possible_states=

[system.cpu3.mmu.stage2_itb]
type=ArmTLB
entry_type=instruction
eventq_index=0
is_stage2=true
next_level=Null
partial_levels=
size=32
sys=system

[system.cpu3.mmu.stage2_itb_walker]
type=ArmTableWalker
children=power_state
clk_domain=system.cpu_clk_domain
eventq_index=0
is_stage2=true
num_squash_per_cycle=2
power_model=
power_state=system.cpu3.mmu.stage2_itb_walker.power_state
sys=system
port=system.membus.cpu_side_ports[24]

[system.cpu3.mmu.stage2_itb_walker.power_state]
type=PowerState
clk_gate_bins=20
clk_gate_max=1000000000000
clk_gate_min=1000
default_state=UNDEFINED
eventq_index=0
leaders=
possible_states=

[system.cpu3.power_state]
type=PowerState
clk_gate_bins=20
clk_gate_max=1000000000000
clk_gate_min=1000
default_state=UNDEFINED
eventq_index=0
leaders=
possible_states=ON CLK_GATED OFF

[system.cpu3.tracer]
type=ExeTracer
eventq_index=0

[system.cpu4]
type=BaseAtomicSimpleCPU
children=decoder interrupts isa mmu power_state tracer
branchPred=Null
checker=Null
clk_domain=system.cpu_clk_domain
cpu_id=4
decoder=system.cpu4.decoder
do_checkpoint_insts=true
do_statistics_insts=true
eventq_index=0
function_trace=false
function_trace_start=0
interrupts=system.cpu4.interrupts
isa=system.cpu4.isa
max_insts_all_threads=0
max_insts_any_thread=0
mmu=system.cpu4.mmu
numThreads=1
power_gating_on_idle=false
power_model=
power_state=system.cpu4.power_state
progress_interval=0
pwr_gating_latency=300
simpoint_start_insts=
simulate_data_stalls=false
simulate_inst_stalls=false
socket_id=0
switched_out=false
syscallRetryLatency=10000
system=system
tracer=system.cpu4.tracer
width=1
workload=
dcache_port=system.membus.cpu_side_ports[27]
icache_port=system.membus.cpu_side_ports[26]

[system.cpu4.decoder]
type=ArmDecoder
dvm_enabled=false
eventq_index=0
isa=system.cpu4.isa

[system.cpu4.interrupts]
type=ArmInterrupts
eventq_index=0

[system.cpu4.isa]
type=ArmISA
children=release_se
decoderFlavor=Generic
eventq_index=0
fpsid=1090793632
id_aa64afr0_el1=0
id_aa64afr1_el1=0
id_aa64dfr0_el1=15790086
id_aa64dfr1_el1=0
id_aa64isar0_el1=268435456
id_aa64isar1_el1=16846864
id_aa64mmfr0_el1=15728642
id_aa64mmfr1_el1=1052704
id_aa64mmfr2_el1=65552
id_isar0=34607377
id_isar1=34677009
id_isar2=555950401
id_isar3=17899825
id_isar4=268501314
id_isar5=285212672
id_isar6=1
id_mmfr0=270536963
id_mmfr1=0
id_mmfr2=19070976
id_mmfr3=34611729
id_mmfr4=0
impdef_nop=false
midr=0
pmu=Null
release_se=system.cpu4.isa.release_se
sve_vl_se=1
system=system

[system.cpu4.isa.release_se]
type=ArmRelease
eventq_index=0
extensions=CRYPTO FEAT_LSE FEAT_RDM FEAT_SVE FEAT_FCMA FEAT_JSCVT FEAT_PAuth TME

[system.cpu4.mmu]
type=ArmMMU
children=dtb dtb_walker itb itb_walker l2_shared stage2_dtb stage2_dtb_walker stage2_itb stage2_itb_walker
dtb=system.cpu4.mmu.dtb
dtb_walker=system.cpu4.mmu.dtb_walker
eventq_index=0
itb=system.cpu4.mmu.itb
itb_walker=system.cpu4.mmu.itb_walker
release_se=system.cpu4.isa.release_se
stage2_dtb=system.cpu4.mmu.stage2_dtb
stage2_dtb_walker=system.cpu4.mmu.stage2_dtb_walker
stage2_itb=system.cpu4.mmu.stage2_itb
stage2_itb_walker=system.cpu4.mmu.stage2_itb_walker
sys=system

[system.cpu4.mmu.dtb]
type=ArmTLB
entry_type=data
eventq_index=0
is_stage2=false
next_level=system.cpu4.mmu.l2_shared
partial_levels=
size=64
sys=system

[system.cpu4.mmu.dtb_walker]
type=ArmTableWalker
children=power_state
clk_domain=system.cpu_clk_domain
eventq_index=0
is_stage2=false
num_squash_per_cycle=2
power_model=
power_state=system.cpu4.mmu.dtb_walker.power_state
sys=system
port=system.membus.cpu_side_ports[29]

[system.cpu4.mmu.dtb_walker.power_state]
type=PowerState
clk_gate_bins=20
clk_gate_max=1000000000000
clk_gate_min=1000
default_state=UNDEFINED
eventq_index=0
leaders=
possible_states=

[system.cpu4.mmu.itb]
type=ArmTLB
entry_type=instruction
eventq_index=0
is_stage2=false
next_level=system.cpu4.mmu.l2_shared
partial_levels=
size=64
sys=system

[system.cpu4.mmu.itb_walker]
type=ArmTableWalker
children=power_state
clk_domain=system.cpu_clk_domain
eventq_index=0
is_stage2=false
num_squash_per_cycle=2
power_model=
power_state=system.cpu4.mmu.itb_walker.power_state
sys=system
port=system.membus.cpu_side_ports[28]

[system.cpu4.mmu.itb_walker.power_state]
type=PowerState
clk_gate_bins=20
clk_gate_max=1000000000000
clk_gate_min=1000
default_state=UNDEFINED
eventq_index=0
leaders=
possible_states=

[system.cpu4.mmu.l2_shared]
type=ArmTLB
entry_type=unified
eventq_index=0
is_stage2=false
next_level=Null
partial_levels=L2
size=1280
sys=system

[system.cpu4.mmu.stage2_dtb]
type=ArmTLB
entry_type=data
eventq_index=0
is_stage2=true
next_level=Null
partial_levels=
size=32
sys=system

[system.cpu4.mmu.stage2_dtb_walker]
type=ArmTableWalker
children=power_state
clk_domain=system.cpu_clk_domain
eventq_index=0
is_stage2=true
num_squash_per_cycle=2
power_model=
power_state=system.cpu4.mmu.stage2_dtb_walker.power_state
sys=system
port=system.membus.cpu_side_ports[31]

[system.cpu4.mmu.stage2_dtb_walker.power_state]
type=PowerState
clk_gate_bins=20
clk_gate_max=1000000000000
clk_gate_min=1000
default_state=UNDEFINED
eventq_index=0
leaders=
possible_states=

[system.cpu4.mmu.stage2_itb]
type=ArmTLB
entry_type=instruction
eventq_index=0
is_stage2=true
next_level=Null
partial_levels=
size=32
sys=system

[system.cpu4.mmu.stage2_itb_walker]
type=ArmTableWalker
children=power_state
clk_domain=system.cpu_clk_domain
eventq_index=0
is_stage2=true
num_squash_per_cycle=2
power_model=
power_state=system.cpu4.mmu.stage2_itb_walker.power_state
sys=system
port=system.membus.cpu_side_ports[30]

[system.cpu4.mmu.stage2_itb_walker.power_state]
type=PowerState
clk_gate_bins=20
clk_gate_max=1000000000000
clk_gate_min=1000
default_state=UNDEFINED
eventq_index=0
leaders=
possible_states=

[system.cpu4.power_state]
type=PowerState
clk_gate_bins=20
clk_gate_max=1000000000000
clk_gate_min=1000
default_state=UNDEFINED
eventq_index=0
leaders=
possible_states=ON CLK_GATED OFF

[system.cpu4.tracer]
type=ExeTracer
eventq_index=0

[system.cpu5]
type=BaseAtomicSimpleCPU
children=decoder interrupts isa mmu power_state tracer
branchPred=Null
checker=Null
clk_domain=system.cpu_clk_domain
cpu_id=5
decoder=system.cpu5.decoder
do_checkpoint_insts=true
do_statistics_insts=true
eventq_index=0
function_trace=false
function_trace_start=0
interrupts=system.cpu5.interrupts
isa=system.cpu5.isa
max_insts_all_threads=0
max_insts_any_thread=0
mmu=system.cpu5.mmu
numThreads=1
power_gating_on_idle=false
power_model=
power_state=system.cpu5.power_state
progress_interval=0
pwr_gating_latency=300
simpoint_start_insts=
simulate_data_stalls=false
simulate_inst_stalls=false
socket_id=0
switched_out=false
syscallRetryLatency=10000
system=system
tracer=system.cpu5.tracer
width=1
workload=
dcache_port=system.membus.cpu_side_ports[33]
icache_port=system.membus.cpu_side_ports[32]

[system.cpu5.decoder]
type=ArmDecoder
dvm_enabled=false
eventq_index=0
isa=system.cpu5.isa

[system.cpu5.interrupts]
type=ArmInterrupts
eventq_index=0

[system.cpu5.isa]
type=ArmISA
children=release_se
decoderFlavor=Generic
eventq_index=0
fpsid=1090793632
id_aa64afr0_el1=0
id_aa64afr1_el1=0
id_aa64dfr0_el1=15790086
id_aa64dfr1_el1=0
id_aa64isar0_el1=268435456
id_aa64isar1_el1=16846864
id_aa64mmfr0_el1=15728642
id_aa64mmfr1_el1=1052704
id_aa64mmfr2_el1=65552
id_isar0=34607377
id_isar1=34677009
id_isar2=555950401
id_isar3=17899825
id_isar4=268501314
id_isar5=285212672
id_isar6=1
id_mmfr0=270536963
id_mmfr1=0
id_mmfr2=19070976
id_mmfr3=34611729
id_mmfr4=0
impdef_nop=false
midr=0
pmu=Null
release_se=system.cpu5.isa.release_se
sve_vl_se=1
system=system

[system.cpu5.isa.release_se]
type=ArmRelease
eventq_index=0
extensions=CRYPTO FEAT_LSE FEAT_RDM FEAT_SVE FEAT_FCMA FEAT_JSCVT FEAT_PAuth TME

[system.cpu5.mmu]
type=ArmMMU
children=dtb dtb_walker itb itb_walker l2_shared stage2_dtb stage2_dtb_walker stage2_itb stage2_itb_walker
dtb=system.cpu5.mmu.dtb
dtb_walker=system.cpu5.mmu.dtb_walker
eventq_index=0
itb=system.cpu5.mmu.itb
itb_walker=system.cpu5.mmu.itb_walker
release_se=system.cpu5.isa.release_se
stage2_dtb=system.cpu5.mmu.stage2_dtb
stage2_dtb_walker=system.cpu5.mmu.stage2_dtb_walker
stage2_itb=system.cpu5.mmu.stage2_itb
stage2_itb_walker=system.cpu5.mmu.stage2_itb_walker
sys=system

[system.cpu5.mmu.dtb]
type=ArmTLB
entry_type=data
eventq_index=0
is_stage2=false
next_level=system.cpu5.mmu.l2_shared
partial_levels=
size=64
sys=system

[system.cpu5.mmu.dtb_walker]
type=ArmTableWalker
children=power_state